# Dye set-up: tracer is initialized after 10 years
# of spin-up of the dynamical fields.
# dye.bin has a dye concentration of 1 in a single grid cell
# near the left boundary (i=2, j=30, k=1), zero otherwise;
# generated with matlab using gendata.m
#
 &PTRACERS_PARM01
 PTRACERS_numInUse=1,
 PTRACERS_initialFile(1)='ptracer.bin',
 PTRACERS_dumpFreq = 3600.,

 PTRACERS_timeave_mnc = .TRUE.,
 PTRACERS_Iter0 = 0,
 
 PTRACERS_names(1) = 'plume',

 &
